*SPEF "ieee 1481-1999"
*DESIGN "eFPGA"
*DATE "15:01:03 Monday February 24, 2025"
*VENDOR "The OpenROAD Project"
*PROGRAM "OpenROAD"
*VERSION "87af90f72f3f9be1fdfa1d886f0dd8d8b8f34694"
*DESIGN_FLOW "NAME_SCOPE LOCAL" "PIN_CAP NONE"
*DIVIDER /
*DELIMITER :
*BUS_DELIMITER []
*T_UNIT 1 NS
*C_UNIT 1 PF
*R_UNIT 1 OHM
*L_UNIT 1 HENRY

*NAME_MAP
*1 FrameData[0]
*2 FrameData[100]
*3 FrameData[101]
*4 FrameData[102]
*5 FrameData[103]
*6 FrameData[104]
*7 FrameData[105]
*8 FrameData[106]
*9 FrameData[107]
*10 FrameData[108]
*11 FrameData[109]
*12 FrameData[10]
*13 FrameData[110]
*14 FrameData[111]
*15 FrameData[112]
*16 FrameData[113]
*17 FrameData[114]
*18 FrameData[115]
*19 FrameData[116]
*20 FrameData[117]
*21 FrameData[118]
*22 FrameData[119]
*23 FrameData[11]
*24 FrameData[120]
*25 FrameData[121]
*26 FrameData[122]
*27 FrameData[123]
*28 FrameData[124]
*29 FrameData[125]
*30 FrameData[126]
*31 FrameData[127]
*32 FrameData[128]
*33 FrameData[129]
*34 FrameData[12]
*35 FrameData[130]
*36 FrameData[131]
*37 FrameData[132]
*38 FrameData[133]
*39 FrameData[134]
*40 FrameData[135]
*41 FrameData[136]
*42 FrameData[137]
*43 FrameData[138]
*44 FrameData[139]
*45 FrameData[13]
*46 FrameData[140]
*47 FrameData[141]
*48 FrameData[142]
*49 FrameData[143]
*50 FrameData[144]
*51 FrameData[145]
*52 FrameData[146]
*53 FrameData[147]
*54 FrameData[148]
*55 FrameData[149]
*56 FrameData[14]
*57 FrameData[150]
*58 FrameData[151]
*59 FrameData[152]
*60 FrameData[153]
*61 FrameData[154]
*62 FrameData[155]
*63 FrameData[156]
*64 FrameData[157]
*65 FrameData[158]
*66 FrameData[159]
*67 FrameData[15]
*68 FrameData[160]
*69 FrameData[161]
*70 FrameData[162]
*71 FrameData[163]
*72 FrameData[164]
*73 FrameData[165]
*74 FrameData[166]
*75 FrameData[167]
*76 FrameData[168]
*77 FrameData[169]
*78 FrameData[16]
*79 FrameData[170]
*80 FrameData[171]
*81 FrameData[172]
*82 FrameData[173]
*83 FrameData[174]
*84 FrameData[175]
*85 FrameData[176]
*86 FrameData[177]
*87 FrameData[178]
*88 FrameData[179]
*89 FrameData[17]
*90 FrameData[180]
*91 FrameData[181]
*92 FrameData[182]
*93 FrameData[183]
*94 FrameData[184]
*95 FrameData[185]
*96 FrameData[186]
*97 FrameData[187]
*98 FrameData[188]
*99 FrameData[189]
*100 FrameData[18]
*101 FrameData[190]
*102 FrameData[191]
*103 FrameData[192]
*104 FrameData[193]
*105 FrameData[194]
*106 FrameData[195]
*107 FrameData[196]
*108 FrameData[197]
*109 FrameData[198]
*110 FrameData[199]
*111 FrameData[19]
*112 FrameData[1]
*113 FrameData[200]
*114 FrameData[201]
*115 FrameData[202]
*116 FrameData[203]
*117 FrameData[204]
*118 FrameData[205]
*119 FrameData[206]
*120 FrameData[207]
*121 FrameData[208]
*122 FrameData[209]
*123 FrameData[20]
*124 FrameData[210]
*125 FrameData[211]
*126 FrameData[212]
*127 FrameData[213]
*128 FrameData[214]
*129 FrameData[215]
*130 FrameData[216]
*131 FrameData[217]
*132 FrameData[218]
*133 FrameData[219]
*134 FrameData[21]
*135 FrameData[220]
*136 FrameData[221]
*137 FrameData[222]
*138 FrameData[223]
*139 FrameData[224]
*140 FrameData[225]
*141 FrameData[226]
*142 FrameData[227]
*143 FrameData[228]
*144 FrameData[229]
*145 FrameData[22]
*146 FrameData[230]
*147 FrameData[231]
*148 FrameData[232]
*149 FrameData[233]
*150 FrameData[234]
*151 FrameData[235]
*152 FrameData[236]
*153 FrameData[237]
*154 FrameData[238]
*155 FrameData[239]
*156 FrameData[23]
*157 FrameData[240]
*158 FrameData[241]
*159 FrameData[242]
*160 FrameData[243]
*161 FrameData[244]
*162 FrameData[245]
*163 FrameData[246]
*164 FrameData[247]
*165 FrameData[248]
*166 FrameData[249]
*167 FrameData[24]
*168 FrameData[250]
*169 FrameData[251]
*170 FrameData[252]
*171 FrameData[253]
*172 FrameData[254]
*173 FrameData[255]
*174 FrameData[256]
*175 FrameData[257]
*176 FrameData[258]
*177 FrameData[259]
*178 FrameData[25]
*179 FrameData[260]
*180 FrameData[261]
*181 FrameData[262]
*182 FrameData[263]
*183 FrameData[264]
*184 FrameData[265]
*185 FrameData[266]
*186 FrameData[267]
*187 FrameData[268]
*188 FrameData[269]
*189 FrameData[26]
*190 FrameData[270]
*191 FrameData[271]
*192 FrameData[272]
*193 FrameData[273]
*194 FrameData[274]
*195 FrameData[275]
*196 FrameData[276]
*197 FrameData[277]
*198 FrameData[278]
*199 FrameData[279]
*200 FrameData[27]
*201 FrameData[280]
*202 FrameData[281]
*203 FrameData[282]
*204 FrameData[283]
*205 FrameData[284]
*206 FrameData[285]
*207 FrameData[286]
*208 FrameData[287]
*209 FrameData[288]
*210 FrameData[289]
*211 FrameData[28]
*212 FrameData[290]
*213 FrameData[291]
*214 FrameData[292]
*215 FrameData[293]
*216 FrameData[294]
*217 FrameData[295]
*218 FrameData[296]
*219 FrameData[297]
*220 FrameData[298]
*221 FrameData[299]
*222 FrameData[29]
*223 FrameData[2]
*224 FrameData[300]
*225 FrameData[301]
*226 FrameData[302]
*227 FrameData[303]
*228 FrameData[304]
*229 FrameData[305]
*230 FrameData[306]
*231 FrameData[307]
*232 FrameData[308]
*233 FrameData[309]
*234 FrameData[30]
*235 FrameData[310]
*236 FrameData[311]
*237 FrameData[312]
*238 FrameData[313]
*239 FrameData[314]
*240 FrameData[315]
*241 FrameData[316]
*242 FrameData[317]
*243 FrameData[318]
*244 FrameData[319]
*245 FrameData[31]
*246 FrameData[320]
*247 FrameData[321]
*248 FrameData[322]
*249 FrameData[323]
*250 FrameData[324]
*251 FrameData[325]
*252 FrameData[326]
*253 FrameData[327]
*254 FrameData[328]
*255 FrameData[329]
*256 FrameData[32]
*257 FrameData[330]
*258 FrameData[331]
*259 FrameData[332]
*260 FrameData[333]
*261 FrameData[334]
*262 FrameData[335]
*263 FrameData[336]
*264 FrameData[337]
*265 FrameData[338]
*266 FrameData[339]
*267 FrameData[33]
*268 FrameData[340]
*269 FrameData[341]
*270 FrameData[342]
*271 FrameData[343]
*272 FrameData[344]
*273 FrameData[345]
*274 FrameData[346]
*275 FrameData[347]
*276 FrameData[348]
*277 FrameData[349]
*278 FrameData[34]
*279 FrameData[350]
*280 FrameData[351]
*281 FrameData[352]
*282 FrameData[353]
*283 FrameData[354]
*284 FrameData[355]
*285 FrameData[356]
*286 FrameData[357]
*287 FrameData[358]
*288 FrameData[359]
*289 FrameData[35]
*290 FrameData[360]
*291 FrameData[361]
*292 FrameData[362]
*293 FrameData[363]
*294 FrameData[364]
*295 FrameData[365]
*296 FrameData[366]
*297 FrameData[367]
*298 FrameData[368]
*299 FrameData[369]
*300 FrameData[36]
*301 FrameData[370]
*302 FrameData[371]
*303 FrameData[372]
*304 FrameData[373]
*305 FrameData[374]
*306 FrameData[375]
*307 FrameData[376]
*308 FrameData[377]
*309 FrameData[378]
*310 FrameData[379]
*311 FrameData[37]
*312 FrameData[380]
*313 FrameData[381]
*314 FrameData[382]
*315 FrameData[383]
*316 FrameData[384]
*317 FrameData[385]
*318 FrameData[386]
*319 FrameData[387]
*320 FrameData[388]
*321 FrameData[389]
*322 FrameData[38]
*323 FrameData[390]
*324 FrameData[391]
*325 FrameData[392]
*326 FrameData[393]
*327 FrameData[394]
*328 FrameData[395]
*329 FrameData[396]
*330 FrameData[397]
*331 FrameData[398]
*332 FrameData[399]
*333 FrameData[39]
*334 FrameData[3]
*335 FrameData[400]
*336 FrameData[401]
*337 FrameData[402]
*338 FrameData[403]
*339 FrameData[404]
*340 FrameData[405]
*341 FrameData[406]
*342 FrameData[407]
*343 FrameData[408]
*344 FrameData[409]
*345 FrameData[40]
*346 FrameData[410]
*347 FrameData[411]
*348 FrameData[412]
*349 FrameData[413]
*350 FrameData[414]
*351 FrameData[415]
*352 FrameData[416]
*353 FrameData[417]
*354 FrameData[418]
*355 FrameData[419]
*356 FrameData[41]
*357 FrameData[420]
*358 FrameData[421]
*359 FrameData[422]
*360 FrameData[423]
*361 FrameData[424]
*362 FrameData[425]
*363 FrameData[426]
*364 FrameData[427]
*365 FrameData[428]
*366 FrameData[429]
*367 FrameData[42]
*368 FrameData[430]
*369 FrameData[431]
*370 FrameData[432]
*371 FrameData[433]
*372 FrameData[434]
*373 FrameData[435]
*374 FrameData[436]
*375 FrameData[437]
*376 FrameData[438]
*377 FrameData[439]
*378 FrameData[43]
*379 FrameData[440]
*380 FrameData[441]
*381 FrameData[442]
*382 FrameData[443]
*383 FrameData[444]
*384 FrameData[445]
*385 FrameData[446]
*386 FrameData[447]
*387 FrameData[448]
*388 FrameData[449]
*389 FrameData[44]
*390 FrameData[450]
*391 FrameData[451]
*392 FrameData[452]
*393 FrameData[453]
*394 FrameData[454]
*395 FrameData[455]
*396 FrameData[456]
*397 FrameData[457]
*398 FrameData[458]
*399 FrameData[459]
*400 FrameData[45]
*401 FrameData[460]
*402 FrameData[461]
*403 FrameData[462]
*404 FrameData[463]
*405 FrameData[464]
*406 FrameData[465]
*407 FrameData[466]
*408 FrameData[467]
*409 FrameData[468]
*410 FrameData[469]
*411 FrameData[46]
*412 FrameData[470]
*413 FrameData[471]
*414 FrameData[472]
*415 FrameData[473]
*416 FrameData[474]
*417 FrameData[475]
*418 FrameData[476]
*419 FrameData[477]
*420 FrameData[478]
*421 FrameData[479]
*422 FrameData[47]
*423 FrameData[480]
*424 FrameData[481]
*425 FrameData[482]
*426 FrameData[483]
*427 FrameData[484]
*428 FrameData[485]
*429 FrameData[486]
*430 FrameData[487]
*431 FrameData[488]
*432 FrameData[489]
*433 FrameData[48]
*434 FrameData[490]
*435 FrameData[491]
*436 FrameData[492]
*437 FrameData[493]
*438 FrameData[494]
*439 FrameData[495]
*440 FrameData[496]
*441 FrameData[497]
*442 FrameData[498]
*443 FrameData[499]
*444 FrameData[49]
*445 FrameData[4]
*446 FrameData[500]
*447 FrameData[501]
*448 FrameData[502]
*449 FrameData[503]
*450 FrameData[504]
*451 FrameData[505]
*452 FrameData[506]
*453 FrameData[507]
*454 FrameData[508]
*455 FrameData[509]
*456 FrameData[50]
*457 FrameData[510]
*458 FrameData[511]
*459 FrameData[512]
*460 FrameData[513]
*461 FrameData[514]
*462 FrameData[515]
*463 FrameData[516]
*464 FrameData[517]
*465 FrameData[518]
*466 FrameData[519]
*467 FrameData[51]
*468 FrameData[520]
*469 FrameData[521]
*470 FrameData[522]
*471 FrameData[523]
*472 FrameData[524]
*473 FrameData[525]
*474 FrameData[526]
*475 FrameData[527]
*476 FrameData[528]
*477 FrameData[529]
*478 FrameData[52]
*479 FrameData[530]
*480 FrameData[531]
*481 FrameData[532]
*482 FrameData[533]
*483 FrameData[534]
*484 FrameData[535]
*485 FrameData[536]
*486 FrameData[537]
*487 FrameData[538]
*488 FrameData[539]
*489 FrameData[53]
*490 FrameData[540]
*491 FrameData[541]
*492 FrameData[542]
*493 FrameData[543]
*494 FrameData[544]
*495 FrameData[545]
*496 FrameData[546]
*497 FrameData[547]
*498 FrameData[548]
*499 FrameData[549]
*500 FrameData[54]
*501 FrameData[550]
*502 FrameData[551]
*503 FrameData[552]
*504 FrameData[553]
*505 FrameData[554]
*506 FrameData[555]
*507 FrameData[556]
*508 FrameData[557]
*509 FrameData[558]
*510 FrameData[559]
*511 FrameData[55]
*512 FrameData[560]
*513 FrameData[561]
*514 FrameData[562]
*515 FrameData[563]
*516 FrameData[564]
*517 FrameData[565]
*518 FrameData[566]
*519 FrameData[567]
*520 FrameData[568]
*521 FrameData[569]
*522 FrameData[56]
*523 FrameData[570]
*524 FrameData[571]
*525 FrameData[572]
*526 FrameData[573]
*527 FrameData[574]
*528 FrameData[575]
*529 FrameData[57]
*530 FrameData[58]
*531 FrameData[59]
*532 FrameData[5]
*533 FrameData[60]
*534 FrameData[61]
*535 FrameData[62]
*536 FrameData[63]
*537 FrameData[64]
*538 FrameData[65]
*539 FrameData[66]
*540 FrameData[67]
*541 FrameData[68]
*542 FrameData[69]
*543 FrameData[6]
*544 FrameData[70]
*545 FrameData[71]
*546 FrameData[72]
*547 FrameData[73]
*548 FrameData[74]
*549 FrameData[75]
*550 FrameData[76]
*551 FrameData[77]
*552 FrameData[78]
*553 FrameData[79]
*554 FrameData[7]
*555 FrameData[80]
*556 FrameData[81]
*557 FrameData[82]
*558 FrameData[83]
*559 FrameData[84]
*560 FrameData[85]
*561 FrameData[86]
*562 FrameData[87]
*563 FrameData[88]
*564 FrameData[89]
*565 FrameData[8]
*566 FrameData[90]
*567 FrameData[91]
*568 FrameData[92]
*569 FrameData[93]
*570 FrameData[94]
*571 FrameData[95]
*572 FrameData[96]
*573 FrameData[97]
*574 FrameData[98]
*575 FrameData[99]
*576 FrameData[9]
*577 FrameStrobe[0]
*578 FrameStrobe[100]
*579 FrameStrobe[101]
*580 FrameStrobe[102]
*581 FrameStrobe[103]
*582 FrameStrobe[104]
*583 FrameStrobe[105]
*584 FrameStrobe[106]
*585 FrameStrobe[107]
*586 FrameStrobe[108]
*587 FrameStrobe[109]
*588 FrameStrobe[10]
*589 FrameStrobe[110]
*590 FrameStrobe[111]
*591 FrameStrobe[112]
*592 FrameStrobe[113]
*593 FrameStrobe[114]
*594 FrameStrobe[115]
*595 FrameStrobe[116]
*596 FrameStrobe[117]
*597 FrameStrobe[118]
*598 FrameStrobe[119]
*599 FrameStrobe[11]
*600 FrameStrobe[120]
*601 FrameStrobe[121]
*602 FrameStrobe[122]
*603 FrameStrobe[123]
*604 FrameStrobe[124]
*605 FrameStrobe[125]
*606 FrameStrobe[126]
*607 FrameStrobe[127]
*608 FrameStrobe[128]
*609 FrameStrobe[129]
*610 FrameStrobe[12]
*611 FrameStrobe[130]
*612 FrameStrobe[131]
*613 FrameStrobe[132]
*614 FrameStrobe[133]
*615 FrameStrobe[134]
*616 FrameStrobe[135]
*617 FrameStrobe[136]
*618 FrameStrobe[137]
*619 FrameStrobe[138]
*620 FrameStrobe[139]
*621 FrameStrobe[13]
*622 FrameStrobe[140]
*623 FrameStrobe[141]
*624 FrameStrobe[142]
*625 FrameStrobe[143]
*626 FrameStrobe[144]
*627 FrameStrobe[145]
*628 FrameStrobe[146]
*629 FrameStrobe[147]
*630 FrameStrobe[148]
*631 FrameStrobe[149]
*632 FrameStrobe[14]
*633 FrameStrobe[150]
*634 FrameStrobe[151]
*635 FrameStrobe[152]
*636 FrameStrobe[153]
*637 FrameStrobe[154]
*638 FrameStrobe[155]
*639 FrameStrobe[156]
*640 FrameStrobe[157]
*641 FrameStrobe[158]
*642 FrameStrobe[159]
*643 FrameStrobe[15]
*644 FrameStrobe[160]
*645 FrameStrobe[161]
*646 FrameStrobe[162]
*647 FrameStrobe[163]
*648 FrameStrobe[164]
*649 FrameStrobe[165]
*650 FrameStrobe[166]
*651 FrameStrobe[167]
*652 FrameStrobe[168]
*653 FrameStrobe[169]
*654 FrameStrobe[16]
*655 FrameStrobe[170]
*656 FrameStrobe[171]
*657 FrameStrobe[172]
*658 FrameStrobe[173]
*659 FrameStrobe[174]
*660 FrameStrobe[175]
*661 FrameStrobe[176]
*662 FrameStrobe[177]
*663 FrameStrobe[178]
*664 FrameStrobe[179]
*665 FrameStrobe[17]
*666 FrameStrobe[180]
*667 FrameStrobe[181]
*668 FrameStrobe[182]
*669 FrameStrobe[183]
*670 FrameStrobe[184]
*671 FrameStrobe[185]
*672 FrameStrobe[186]
*673 FrameStrobe[187]
*674 FrameStrobe[188]
*675 FrameStrobe[189]
*676 FrameStrobe[18]
*677 FrameStrobe[190]
*678 FrameStrobe[191]
*679 FrameStrobe[192]
*680 FrameStrobe[193]
*681 FrameStrobe[194]
*682 FrameStrobe[195]
*683 FrameStrobe[196]
*684 FrameStrobe[197]
*685 FrameStrobe[198]
*686 FrameStrobe[199]
*687 FrameStrobe[19]
*688 FrameStrobe[1]
*689 FrameStrobe[200]
*690 FrameStrobe[201]
*691 FrameStrobe[202]
*692 FrameStrobe[203]
*693 FrameStrobe[204]
*694 FrameStrobe[205]
*695 FrameStrobe[206]
*696 FrameStrobe[207]
*697 FrameStrobe[208]
*698 FrameStrobe[209]
*699 FrameStrobe[20]
*700 FrameStrobe[210]
*701 FrameStrobe[211]
*702 FrameStrobe[212]
*703 FrameStrobe[213]
*704 FrameStrobe[214]
*705 FrameStrobe[215]
*706 FrameStrobe[216]
*707 FrameStrobe[217]
*708 FrameStrobe[218]
*709 FrameStrobe[219]
*710 FrameStrobe[21]
*711 FrameStrobe[220]
*712 FrameStrobe[221]
*713 FrameStrobe[222]
*714 FrameStrobe[223]
*715 FrameStrobe[224]
*716 FrameStrobe[225]
*717 FrameStrobe[226]
*718 FrameStrobe[227]
*719 FrameStrobe[228]
*720 FrameStrobe[229]
*721 FrameStrobe[22]
*722 FrameStrobe[230]
*723 FrameStrobe[231]
*724 FrameStrobe[232]
*725 FrameStrobe[233]
*726 FrameStrobe[234]
*727 FrameStrobe[235]
*728 FrameStrobe[236]
*729 FrameStrobe[237]
*730 FrameStrobe[238]
*731 FrameStrobe[239]
*732 FrameStrobe[23]
*733 FrameStrobe[24]
*734 FrameStrobe[25]
*735 FrameStrobe[26]
*736 FrameStrobe[27]
*737 FrameStrobe[28]
*738 FrameStrobe[29]
*739 FrameStrobe[2]
*740 FrameStrobe[30]
*741 FrameStrobe[31]
*742 FrameStrobe[32]
*743 FrameStrobe[33]
*744 FrameStrobe[34]
*745 FrameStrobe[35]
*746 FrameStrobe[36]
*747 FrameStrobe[37]
*748 FrameStrobe[38]
*749 FrameStrobe[39]
*750 FrameStrobe[3]
*751 FrameStrobe[40]
*752 FrameStrobe[41]
*753 FrameStrobe[42]
*754 FrameStrobe[43]
*755 FrameStrobe[44]
*756 FrameStrobe[45]
*757 FrameStrobe[46]
*758 FrameStrobe[47]
*759 FrameStrobe[48]
*760 FrameStrobe[49]
*761 FrameStrobe[4]
*762 FrameStrobe[50]
*763 FrameStrobe[51]
*764 FrameStrobe[52]
*765 FrameStrobe[53]
*766 FrameStrobe[54]
*767 FrameStrobe[55]
*768 FrameStrobe[56]
*769 FrameStrobe[57]
*770 FrameStrobe[58]
*771 FrameStrobe[59]
*772 FrameStrobe[5]
*773 FrameStrobe[60]
*774 FrameStrobe[61]
*775 FrameStrobe[62]
*776 FrameStrobe[63]
*777 FrameStrobe[64]
*778 FrameStrobe[65]
*779 FrameStrobe[66]
*780 FrameStrobe[67]
*781 FrameStrobe[68]
*782 FrameStrobe[69]
*783 FrameStrobe[6]
*784 FrameStrobe[70]
*785 FrameStrobe[71]
*786 FrameStrobe[72]
*787 FrameStrobe[73]
*788 FrameStrobe[74]
*789 FrameStrobe[75]
*790 FrameStrobe[76]
*791 FrameStrobe[77]
*792 FrameStrobe[78]
*793 FrameStrobe[79]
*794 FrameStrobe[7]
*795 FrameStrobe[80]
*796 FrameStrobe[81]
*797 FrameStrobe[82]
*798 FrameStrobe[83]
*799 FrameStrobe[84]
*800 FrameStrobe[85]
*801 FrameStrobe[86]
*802 FrameStrobe[87]
*803 FrameStrobe[88]
*804 FrameStrobe[89]
*805 FrameStrobe[8]
*806 FrameStrobe[90]
*807 FrameStrobe[91]
*808 FrameStrobe[92]
*809 FrameStrobe[93]
*810 FrameStrobe[94]
*811 FrameStrobe[95]
*812 FrameStrobe[96]
*813 FrameStrobe[97]
*814 FrameStrobe[98]
*815 FrameStrobe[99]
*816 FrameStrobe[9]
*817 Tile_X0Y10_A_I_top
*818 Tile_X0Y10_A_O_top
*819 Tile_X0Y10_A_T_top
*820 Tile_X0Y10_A_config_C_bit0
*821 Tile_X0Y10_A_config_C_bit1
*822 Tile_X0Y10_A_config_C_bit2
*823 Tile_X0Y10_A_config_C_bit3
*824 Tile_X0Y10_B_I_top
*825 Tile_X0Y10_B_O_top
*826 Tile_X0Y10_B_T_top
*827 Tile_X0Y10_B_config_C_bit0
*828 Tile_X0Y10_B_config_C_bit1
*829 Tile_X0Y10_B_config_C_bit2
*830 Tile_X0Y10_B_config_C_bit3
*831 Tile_X0Y11_A_I_top
*832 Tile_X0Y11_A_O_top
*833 Tile_X0Y11_A_T_top
*834 Tile_X0Y11_A_config_C_bit0
*835 Tile_X0Y11_A_config_C_bit1
*836 Tile_X0Y11_A_config_C_bit2
*837 Tile_X0Y11_A_config_C_bit3
*838 Tile_X0Y11_B_I_top
*839 Tile_X0Y11_B_O_top
*840 Tile_X0Y11_B_T_top
*841 Tile_X0Y11_B_config_C_bit0
*842 Tile_X0Y11_B_config_C_bit1
*843 Tile_X0Y11_B_config_C_bit2
*844 Tile_X0Y11_B_config_C_bit3
*845 Tile_X0Y12_A_I_top
*846 Tile_X0Y12_A_O_top
*847 Tile_X0Y12_A_T_top
*848 Tile_X0Y12_A_config_C_bit0
*849 Tile_X0Y12_A_config_C_bit1
*850 Tile_X0Y12_A_config_C_bit2
*851 Tile_X0Y12_A_config_C_bit3
*852 Tile_X0Y12_B_I_top
*853 Tile_X0Y12_B_O_top
*854 Tile_X0Y12_B_T_top
*855 Tile_X0Y12_B_config_C_bit0
*856 Tile_X0Y12_B_config_C_bit1
*857 Tile_X0Y12_B_config_C_bit2
*858 Tile_X0Y12_B_config_C_bit3
*859 Tile_X0Y13_A_I_top
*860 Tile_X0Y13_A_O_top
*861 Tile_X0Y13_A_T_top
*862 Tile_X0Y13_A_config_C_bit0
*863 Tile_X0Y13_A_config_C_bit1
*864 Tile_X0Y13_A_config_C_bit2
*865 Tile_X0Y13_A_config_C_bit3
*866 Tile_X0Y13_B_I_top
*867 Tile_X0Y13_B_O_top
*868 Tile_X0Y13_B_T_top
*869 Tile_X0Y13_B_config_C_bit0
*870 Tile_X0Y13_B_config_C_bit1
*871 Tile_X0Y13_B_config_C_bit2
*872 Tile_X0Y13_B_config_C_bit3
*873 Tile_X0Y14_A_I_top
*874 Tile_X0Y14_A_O_top
*875 Tile_X0Y14_A_T_top
*876 Tile_X0Y14_A_config_C_bit0
*877 Tile_X0Y14_A_config_C_bit1
*878 Tile_X0Y14_A_config_C_bit2
*879 Tile_X0Y14_A_config_C_bit3
*880 Tile_X0Y14_B_I_top
*881 Tile_X0Y14_B_O_top
*882 Tile_X0Y14_B_T_top
*883 Tile_X0Y14_B_config_C_bit0
*884 Tile_X0Y14_B_config_C_bit1
*885 Tile_X0Y14_B_config_C_bit2
*886 Tile_X0Y14_B_config_C_bit3
*887 Tile_X0Y15_A_I_top
*888 Tile_X0Y15_A_O_top
*889 Tile_X0Y15_A_T_top
*890 Tile_X0Y15_A_config_C_bit0
*891 Tile_X0Y15_A_config_C_bit1
*892 Tile_X0Y15_A_config_C_bit2
*893 Tile_X0Y15_A_config_C_bit3
*894 Tile_X0Y15_B_I_top
*895 Tile_X0Y15_B_O_top
*896 Tile_X0Y15_B_T_top
*897 Tile_X0Y15_B_config_C_bit0
*898 Tile_X0Y15_B_config_C_bit1
*899 Tile_X0Y15_B_config_C_bit2
*900 Tile_X0Y15_B_config_C_bit3
*901 Tile_X0Y16_A_I_top
*902 Tile_X0Y16_A_O_top
*903 Tile_X0Y16_A_T_top
*904 Tile_X0Y16_A_config_C_bit0
*905 Tile_X0Y16_A_config_C_bit1
*906 Tile_X0Y16_A_config_C_bit2
*907 Tile_X0Y16_A_config_C_bit3
*908 Tile_X0Y16_B_I_top
*909 Tile_X0Y16_B_O_top
*910 Tile_X0Y16_B_T_top
*911 Tile_X0Y16_B_config_C_bit0
*912 Tile_X0Y16_B_config_C_bit1
*913 Tile_X0Y16_B_config_C_bit2
*914 Tile_X0Y16_B_config_C_bit3
*915 Tile_X0Y1_A_I_top
*916 Tile_X0Y1_A_O_top
*917 Tile_X0Y1_A_T_top
*918 Tile_X0Y1_A_config_C_bit0
*919 Tile_X0Y1_A_config_C_bit1
*920 Tile_X0Y1_A_config_C_bit2
*921 Tile_X0Y1_A_config_C_bit3
*922 Tile_X0Y1_B_I_top
*923 Tile_X0Y1_B_O_top
*924 Tile_X0Y1_B_T_top
*925 Tile_X0Y1_B_config_C_bit0
*926 Tile_X0Y1_B_config_C_bit1
*927 Tile_X0Y1_B_config_C_bit2
*928 Tile_X0Y1_B_config_C_bit3
*929 Tile_X0Y2_A_I_top
*930 Tile_X0Y2_A_O_top
*931 Tile_X0Y2_A_T_top
*932 Tile_X0Y2_A_config_C_bit0
*933 Tile_X0Y2_A_config_C_bit1
*934 Tile_X0Y2_A_config_C_bit2
*935 Tile_X0Y2_A_config_C_bit3
*936 Tile_X0Y2_B_I_top
*937 Tile_X0Y2_B_O_top
*938 Tile_X0Y2_B_T_top
*939 Tile_X0Y2_B_config_C_bit0
*940 Tile_X0Y2_B_config_C_bit1
*941 Tile_X0Y2_B_config_C_bit2
*942 Tile_X0Y2_B_config_C_bit3
*943 Tile_X0Y3_A_I_top
*944 Tile_X0Y3_A_O_top
*945 Tile_X0Y3_A_T_top
*946 Tile_X0Y3_A_config_C_bit0
*947 Tile_X0Y3_A_config_C_bit1
*948 Tile_X0Y3_A_config_C_bit2
*949 Tile_X0Y3_A_config_C_bit3
*950 Tile_X0Y3_B_I_top
*951 Tile_X0Y3_B_O_top
*952 Tile_X0Y3_B_T_top
*953 Tile_X0Y3_B_config_C_bit0
*954 Tile_X0Y3_B_config_C_bit1
*955 Tile_X0Y3_B_config_C_bit2
*956 Tile_X0Y3_B_config_C_bit3
*957 Tile_X0Y4_A_I_top
*958 Tile_X0Y4_A_O_top
*959 Tile_X0Y4_A_T_top
*960 Tile_X0Y4_A_config_C_bit0
*961 Tile_X0Y4_A_config_C_bit1
*962 Tile_X0Y4_A_config_C_bit2
*963 Tile_X0Y4_A_config_C_bit3
*964 Tile_X0Y4_B_I_top
*965 Tile_X0Y4_B_O_top
*966 Tile_X0Y4_B_T_top
*967 Tile_X0Y4_B_config_C_bit0
*968 Tile_X0Y4_B_config_C_bit1
*969 Tile_X0Y4_B_config_C_bit2
*970 Tile_X0Y4_B_config_C_bit3
*971 Tile_X0Y5_A_I_top
*972 Tile_X0Y5_A_O_top
*973 Tile_X0Y5_A_T_top
*974 Tile_X0Y5_A_config_C_bit0
*975 Tile_X0Y5_A_config_C_bit1
*976 Tile_X0Y5_A_config_C_bit2
*977 Tile_X0Y5_A_config_C_bit3
*978 Tile_X0Y5_B_I_top
*979 Tile_X0Y5_B_O_top
*980 Tile_X0Y5_B_T_top
*981 Tile_X0Y5_B_config_C_bit0
*982 Tile_X0Y5_B_config_C_bit1
*983 Tile_X0Y5_B_config_C_bit2
*984 Tile_X0Y5_B_config_C_bit3
*985 Tile_X0Y6_A_I_top
*986 Tile_X0Y6_A_O_top
*987 Tile_X0Y6_A_T_top
*988 Tile_X0Y6_A_config_C_bit0
*989 Tile_X0Y6_A_config_C_bit1
*990 Tile_X0Y6_A_config_C_bit2
*991 Tile_X0Y6_A_config_C_bit3
*992 Tile_X0Y6_B_I_top
*993 Tile_X0Y6_B_O_top
*994 Tile_X0Y6_B_T_top
*995 Tile_X0Y6_B_config_C_bit0
*996 Tile_X0Y6_B_config_C_bit1
*997 Tile_X0Y6_B_config_C_bit2
*998 Tile_X0Y6_B_config_C_bit3
*999 Tile_X0Y7_A_I_top
*1000 Tile_X0Y7_A_O_top
*1001 Tile_X0Y7_A_T_top
*1002 Tile_X0Y7_A_config_C_bit0
*1003 Tile_X0Y7_A_config_C_bit1
*1004 Tile_X0Y7_A_config_C_bit2
*1005 Tile_X0Y7_A_config_C_bit3
*1006 Tile_X0Y7_B_I_top
*1007 Tile_X0Y7_B_O_top
*1008 Tile_X0Y7_B_T_top
*1009 Tile_X0Y7_B_config_C_bit0
*1010 Tile_X0Y7_B_config_C_bit1
*1011 Tile_X0Y7_B_config_C_bit2
*1012 Tile_X0Y7_B_config_C_bit3
*1013 Tile_X0Y8_A_I_top
*1014 Tile_X0Y8_A_O_top
*1015 Tile_X0Y8_A_T_top
*1016 Tile_X0Y8_A_config_C_bit0
*1017 Tile_X0Y8_A_config_C_bit1
*1018 Tile_X0Y8_A_config_C_bit2
*1019 Tile_X0Y8_A_config_C_bit3
*1020 Tile_X0Y8_B_I_top
*1021 Tile_X0Y8_B_O_top
*1022 Tile_X0Y8_B_T_top
*1023 Tile_X0Y8_B_config_C_bit0
*1024 Tile_X0Y8_B_config_C_bit1
*1025 Tile_X0Y8_B_config_C_bit2
*1026 Tile_X0Y8_B_config_C_bit3
*1027 Tile_X0Y9_A_I_top
*1028 Tile_X0Y9_A_O_top
*1029 Tile_X0Y9_A_T_top
*1030 Tile_X0Y9_A_config_C_bit0
*1031 Tile_X0Y9_A_config_C_bit1
*1032 Tile_X0Y9_A_config_C_bit2
*1033 Tile_X0Y9_A_config_C_bit3
*1034 Tile_X0Y9_B_I_top
*1035 Tile_X0Y9_B_O_top
*1036 Tile_X0Y9_B_T_top
*1037 Tile_X0Y9_B_config_C_bit0
*1038 Tile_X0Y9_B_config_C_bit1
*1039 Tile_X0Y9_B_config_C_bit2
*1040 Tile_X0Y9_B_config_C_bit3
*1041 Tile_X10Y0_A_I_top
*1042 Tile_X10Y0_A_O_top
*1043 Tile_X10Y0_A_T_top
*1044 Tile_X10Y0_A_config_C_bit0
*1045 Tile_X10Y0_A_config_C_bit1
*1046 Tile_X10Y0_A_config_C_bit2
*1047 Tile_X10Y0_A_config_C_bit3
*1048 Tile_X10Y0_B_I_top
*1049 Tile_X10Y0_B_O_top
*1050 Tile_X10Y0_B_T_top
*1051 Tile_X10Y0_B_config_C_bit0
*1052 Tile_X10Y0_B_config_C_bit1
*1053 Tile_X10Y0_B_config_C_bit2
*1054 Tile_X10Y0_B_config_C_bit3
*1055 Tile_X10Y17_VALUE_top0
*1056 Tile_X10Y17_VALUE_top1
*1057 Tile_X10Y17_VALUE_top2
*1058 Tile_X10Y17_VALUE_top3
*1059 Tile_X10Y17_VALUE_top4
*1060 Tile_X10Y17_VALUE_top5
*1061 Tile_X10Y17_VALUE_top6
*1062 Tile_X10Y17_VALUE_top7
*1063 Tile_X11Y10_AD_SRAM0
*1064 Tile_X11Y10_AD_SRAM1
*1065 Tile_X11Y10_AD_SRAM2
*1066 Tile_X11Y10_AD_SRAM3
*1067 Tile_X11Y10_AD_SRAM4
*1068 Tile_X11Y10_AD_SRAM5
*1069 Tile_X11Y10_AD_SRAM6
*1070 Tile_X11Y10_AD_SRAM7
*1071 Tile_X11Y10_AD_SRAM8
*1072 Tile_X11Y10_AD_SRAM9
*1073 Tile_X11Y10_BEN_SRAM0
*1074 Tile_X11Y10_BEN_SRAM1
*1075 Tile_X11Y10_BEN_SRAM10
*1076 Tile_X11Y10_BEN_SRAM11
*1077 Tile_X11Y10_BEN_SRAM12
*1078 Tile_X11Y10_BEN_SRAM13
*1079 Tile_X11Y10_BEN_SRAM14
*1080 Tile_X11Y10_BEN_SRAM15
*1081 Tile_X11Y10_BEN_SRAM16
*1082 Tile_X11Y10_BEN_SRAM17
*1083 Tile_X11Y10_BEN_SRAM18
*1084 Tile_X11Y10_BEN_SRAM19
*1085 Tile_X11Y10_BEN_SRAM2
*1086 Tile_X11Y10_BEN_SRAM20
*1087 Tile_X11Y10_BEN_SRAM21
*1088 Tile_X11Y10_BEN_SRAM22
*1089 Tile_X11Y10_BEN_SRAM23
*1090 Tile_X11Y10_BEN_SRAM24
*1091 Tile_X11Y10_BEN_SRAM25
*1092 Tile_X11Y10_BEN_SRAM26
*1093 Tile_X11Y10_BEN_SRAM27
*1094 Tile_X11Y10_BEN_SRAM28
*1095 Tile_X11Y10_BEN_SRAM29
*1096 Tile_X11Y10_BEN_SRAM3
*1097 Tile_X11Y10_BEN_SRAM30
*1098 Tile_X11Y10_BEN_SRAM31
*1099 Tile_X11Y10_BEN_SRAM4
*1100 Tile_X11Y10_BEN_SRAM5
*1101 Tile_X11Y10_BEN_SRAM6
*1102 Tile_X11Y10_BEN_SRAM7
*1103 Tile_X11Y10_BEN_SRAM8
*1104 Tile_X11Y10_BEN_SRAM9
*1105 Tile_X11Y10_CLOCK_SRAM
*1106 Tile_X11Y10_DI_SRAM0
*1107 Tile_X11Y10_DI_SRAM1
*1108 Tile_X11Y10_DI_SRAM10
*1109 Tile_X11Y10_DI_SRAM11
*1110 Tile_X11Y10_DI_SRAM12
*1111 Tile_X11Y10_DI_SRAM13
*1112 Tile_X11Y10_DI_SRAM14
*1113 Tile_X11Y10_DI_SRAM15
*1114 Tile_X11Y10_DI_SRAM16
*1115 Tile_X11Y10_DI_SRAM17
*1116 Tile_X11Y10_DI_SRAM18
*1117 Tile_X11Y10_DI_SRAM19
*1118 Tile_X11Y10_DI_SRAM2
*1119 Tile_X11Y10_DI_SRAM20
*1120 Tile_X11Y10_DI_SRAM21
*1121 Tile_X11Y10_DI_SRAM22
*1122 Tile_X11Y10_DI_SRAM23
*1123 Tile_X11Y10_DI_SRAM24
*1124 Tile_X11Y10_DI_SRAM25
*1125 Tile_X11Y10_DI_SRAM26
*1126 Tile_X11Y10_DI_SRAM27
*1127 Tile_X11Y10_DI_SRAM28
*1128 Tile_X11Y10_DI_SRAM29
*1129 Tile_X11Y10_DI_SRAM3
*1130 Tile_X11Y10_DI_SRAM30
*1131 Tile_X11Y10_DI_SRAM31
*1132 Tile_X11Y10_DI_SRAM4
*1133 Tile_X11Y10_DI_SRAM5
*1134 Tile_X11Y10_DI_SRAM6
*1135 Tile_X11Y10_DI_SRAM7
*1136 Tile_X11Y10_DI_SRAM8
*1137 Tile_X11Y10_DI_SRAM9
*1138 Tile_X11Y10_DO_SRAM0
*1139 Tile_X11Y10_DO_SRAM1
*1140 Tile_X11Y10_DO_SRAM10
*1141 Tile_X11Y10_DO_SRAM11
*1142 Tile_X11Y10_DO_SRAM12
*1143 Tile_X11Y10_DO_SRAM13
*1144 Tile_X11Y10_DO_SRAM14
*1145 Tile_X11Y10_DO_SRAM15
*1146 Tile_X11Y10_DO_SRAM16
*1147 Tile_X11Y10_DO_SRAM17
*1148 Tile_X11Y10_DO_SRAM18
*1149 Tile_X11Y10_DO_SRAM19
*1150 Tile_X11Y10_DO_SRAM2
*1151 Tile_X11Y10_DO_SRAM20
*1152 Tile_X11Y10_DO_SRAM21
*1153 Tile_X11Y10_DO_SRAM22
*1154 Tile_X11Y10_DO_SRAM23
*1155 Tile_X11Y10_DO_SRAM24
*1156 Tile_X11Y10_DO_SRAM25
*1157 Tile_X11Y10_DO_SRAM26
*1158 Tile_X11Y10_DO_SRAM27
*1159 Tile_X11Y10_DO_SRAM28
*1160 Tile_X11Y10_DO_SRAM29
*1161 Tile_X11Y10_DO_SRAM3
*1162 Tile_X11Y10_DO_SRAM30
*1163 Tile_X11Y10_DO_SRAM31
*1164 Tile_X11Y10_DO_SRAM4
*1165 Tile_X11Y10_DO_SRAM5
*1166 Tile_X11Y10_DO_SRAM6
*1167 Tile_X11Y10_DO_SRAM7
*1168 Tile_X11Y10_DO_SRAM8
*1169 Tile_X11Y10_DO_SRAM9
*1170 Tile_X11Y10_EN_SRAM
*1171 Tile_X11Y10_R_WB_SRAM
*1172 Tile_X11Y12_AD_SRAM0
*1173 Tile_X11Y12_AD_SRAM1
*1174 Tile_X11Y12_AD_SRAM2
*1175 Tile_X11Y12_AD_SRAM3
*1176 Tile_X11Y12_AD_SRAM4
*1177 Tile_X11Y12_AD_SRAM5
*1178 Tile_X11Y12_AD_SRAM6
*1179 Tile_X11Y12_AD_SRAM7
*1180 Tile_X11Y12_AD_SRAM8
*1181 Tile_X11Y12_AD_SRAM9
*1182 Tile_X11Y12_BEN_SRAM0
*1183 Tile_X11Y12_BEN_SRAM1
*1184 Tile_X11Y12_BEN_SRAM10
*1185 Tile_X11Y12_BEN_SRAM11
*1186 Tile_X11Y12_BEN_SRAM12
*1187 Tile_X11Y12_BEN_SRAM13
*1188 Tile_X11Y12_BEN_SRAM14
*1189 Tile_X11Y12_BEN_SRAM15
*1190 Tile_X11Y12_BEN_SRAM16
*1191 Tile_X11Y12_BEN_SRAM17
*1192 Tile_X11Y12_BEN_SRAM18
*1193 Tile_X11Y12_BEN_SRAM19
*1194 Tile_X11Y12_BEN_SRAM2
*1195 Tile_X11Y12_BEN_SRAM20
*1196 Tile_X11Y12_BEN_SRAM21
*1197 Tile_X11Y12_BEN_SRAM22
*1198 Tile_X11Y12_BEN_SRAM23
*1199 Tile_X11Y12_BEN_SRAM24
*1200 Tile_X11Y12_BEN_SRAM25
*1201 Tile_X11Y12_BEN_SRAM26
*1202 Tile_X11Y12_BEN_SRAM27
*1203 Tile_X11Y12_BEN_SRAM28
*1204 Tile_X11Y12_BEN_SRAM29
*1205 Tile_X11Y12_BEN_SRAM3
*1206 Tile_X11Y12_BEN_SRAM30
*1207 Tile_X11Y12_BEN_SRAM31
*1208 Tile_X11Y12_BEN_SRAM4
*1209 Tile_X11Y12_BEN_SRAM5
*1210 Tile_X11Y12_BEN_SRAM6
*1211 Tile_X11Y12_BEN_SRAM7
*1212 Tile_X11Y12_BEN_SRAM8
*1213 Tile_X11Y12_BEN_SRAM9
*1214 Tile_X11Y12_CLOCK_SRAM
*1215 Tile_X11Y12_DI_SRAM0
*1216 Tile_X11Y12_DI_SRAM1
*1217 Tile_X11Y12_DI_SRAM10
*1218 Tile_X11Y12_DI_SRAM11
*1219 Tile_X11Y12_DI_SRAM12
*1220 Tile_X11Y12_DI_SRAM13
*1221 Tile_X11Y12_DI_SRAM14
*1222 Tile_X11Y12_DI_SRAM15
*1223 Tile_X11Y12_DI_SRAM16
*1224 Tile_X11Y12_DI_SRAM17
*1225 Tile_X11Y12_DI_SRAM18
*1226 Tile_X11Y12_DI_SRAM19
*1227 Tile_X11Y12_DI_SRAM2
*1228 Tile_X11Y12_DI_SRAM20
*1229 Tile_X11Y12_DI_SRAM21
*1230 Tile_X11Y12_DI_SRAM22
*1231 Tile_X11Y12_DI_SRAM23
*1232 Tile_X11Y12_DI_SRAM24
*1233 Tile_X11Y12_DI_SRAM25
*1234 Tile_X11Y12_DI_SRAM26
*1235 Tile_X11Y12_DI_SRAM27
*1236 Tile_X11Y12_DI_SRAM28
*1237 Tile_X11Y12_DI_SRAM29
*1238 Tile_X11Y12_DI_SRAM3
*1239 Tile_X11Y12_DI_SRAM30
*1240 Tile_X11Y12_DI_SRAM31
*1241 Tile_X11Y12_DI_SRAM4
*1242 Tile_X11Y12_DI_SRAM5
*1243 Tile_X11Y12_DI_SRAM6
*1244 Tile_X11Y12_DI_SRAM7
*1245 Tile_X11Y12_DI_SRAM8
*1246 Tile_X11Y12_DI_SRAM9
*1247 Tile_X11Y12_DO_SRAM0
*1248 Tile_X11Y12_DO_SRAM1
*1249 Tile_X11Y12_DO_SRAM10
*1250 Tile_X11Y12_DO_SRAM11
*1251 Tile_X11Y12_DO_SRAM12
*1252 Tile_X11Y12_DO_SRAM13
*1253 Tile_X11Y12_DO_SRAM14
*1254 Tile_X11Y12_DO_SRAM15
*1255 Tile_X11Y12_DO_SRAM16
*1256 Tile_X11Y12_DO_SRAM17
*1257 Tile_X11Y12_DO_SRAM18
*1258 Tile_X11Y12_DO_SRAM19
*1259 Tile_X11Y12_DO_SRAM2
*1260 Tile_X11Y12_DO_SRAM20
*1261 Tile_X11Y12_DO_SRAM21
*1262 Tile_X11Y12_DO_SRAM22
*1263 Tile_X11Y12_DO_SRAM23
*1264 Tile_X11Y12_DO_SRAM24
*1265 Tile_X11Y12_DO_SRAM25
*1266 Tile_X11Y12_DO_SRAM26
*1267 Tile_X11Y12_DO_SRAM27
*1268 Tile_X11Y12_DO_SRAM28
*1269 Tile_X11Y12_DO_SRAM29
*1270 Tile_X11Y12_DO_SRAM3
*1271 Tile_X11Y12_DO_SRAM30
*1272 Tile_X11Y12_DO_SRAM31
*1273 Tile_X11Y12_DO_SRAM4
*1274 Tile_X11Y12_DO_SRAM5
*1275 Tile_X11Y12_DO_SRAM6
*1276 Tile_X11Y12_DO_SRAM7
*1277 Tile_X11Y12_DO_SRAM8
*1278 Tile_X11Y12_DO_SRAM9
*1279 Tile_X11Y12_EN_SRAM
*1280 Tile_X11Y12_R_WB_SRAM
*1281 Tile_X11Y14_AD_SRAM0
*1282 Tile_X11Y14_AD_SRAM1
*1283 Tile_X11Y14_AD_SRAM2
*1284 Tile_X11Y14_AD_SRAM3
*1285 Tile_X11Y14_AD_SRAM4