*SPEF "ieee 1481-1999"
*DESIGN "eFPGA"
*DATE "21:29:54 Thursday April 03, 2025"
*VENDOR "The OpenROAD Project"
*PROGRAM "OpenROAD"
*VERSION "87af90f72f3f9be1fdfa1d886f0dd8d8b8f34694"
*DESIGN_FLOW "NAME_SCOPE LOCAL" "PIN_CAP NONE"
*DIVIDER /
*DELIMITER :
*BUS_DELIMITER []
*T_UNIT 1 NS
*C_UNIT 1 PF
*R_UNIT 1 OHM
*L_UNIT 1 HENRY

*NAME_MAP
*1 FrameData[0]
*2 FrameData[100]
*3 FrameData[101]
*4 FrameData[102]
*5 FrameData[103]
*6 FrameData[104]
*7 FrameData[105]
*8 FrameData[106]
*9 FrameData[107]
*10 FrameData[108]
*11 FrameData[109]
*12 FrameData[10]
*13 FrameData[110]
*14 FrameData[111]
*15 FrameData[112]
*16 FrameData[113]
*17 FrameData[114]
*18 FrameData[115]
*19 FrameData[116]
*20 FrameData[117]
*21 FrameData[118]
*22 FrameData[119]
*23 FrameData[11]
*24 FrameData[120]
*25 FrameData[121]
*26 FrameData[122]
*27 FrameData[123]
*28 FrameData[124]
*29 FrameData[125]
*30 FrameData[126]
*31 FrameData[127]
*32 FrameData[128]
*33 FrameData[129]
*34 FrameData[12]
*35 FrameData[130]
*36 FrameData[131]
*37 FrameData[132]
*38 FrameData[133]
*39 FrameData[134]
*40 FrameData[135]
*41 FrameData[136]
*42 FrameData[137]
*43 FrameData[138]
*44 FrameData[139]
*45 FrameData[13]
*46 FrameData[140]
*47 FrameData[141]
*48 FrameData[142]
*49 FrameData[143]
*50 FrameData[144]
*51 FrameData[145]
*52 FrameData[146]
*53 FrameData[147]
*54 FrameData[148]
*55 FrameData[149]
*56 FrameData[14]
*57 FrameData[150]
*58 FrameData[151]
*59 FrameData[152]
*60 FrameData[153]
*61 FrameData[154]
*62 FrameData[155]
*63 FrameData[156]
*64 FrameData[157]
*65 FrameData[158]
*66 FrameData[159]
*67 FrameData[15]
*68 FrameData[160]
*69 FrameData[161]
*70 FrameData[162]
*71 FrameData[163]
*72 FrameData[164]
*73 FrameData[165]
*74 FrameData[166]
*75 FrameData[167]
*76 FrameData[168]
*77 FrameData[169]
*78 FrameData[16]
*79 FrameData[170]
*80 FrameData[171]
*81 FrameData[172]
*82 FrameData[173]
*83 FrameData[174]
*84 FrameData[175]
*85 FrameData[176]
*86 FrameData[177]
*87 FrameData[178]
*88 FrameData[179]
*89 FrameData[17]
*90 FrameData[180]
*91 FrameData[181]
*92 FrameData[182]
*93 FrameData[183]
*94 FrameData[184]
*95 FrameData[185]
*96 FrameData[186]
*97 FrameData[187]
*98 FrameData[188]
*99 FrameData[189]
*100 FrameData[18]
*101 FrameData[190]
*102 FrameData[191]
*103 FrameData[192]
*104 FrameData[193]
*105 FrameData[194]
*106 FrameData[195]
*107 FrameData[196]
*108 FrameData[197]
*109 FrameData[198]
*110 FrameData[199]
*111 FrameData[19]
*112 FrameData[1]
*113 FrameData[200]
*114 FrameData[201]
*115 FrameData[202]
*116 FrameData[203]
*117 FrameData[204]
*118 FrameData[205]
*119 FrameData[206]
*120 FrameData[207]
*121 FrameData[208]
*122 FrameData[209]
*123 FrameData[20]
*124 FrameData[210]
*125 FrameData[211]
*126 FrameData[212]
*127 FrameData[213]
*128 FrameData[214]
*129 FrameData[215]
*130 FrameData[216]
*131 FrameData[217]
*132 FrameData[218]
*133 FrameData[219]
*134 FrameData[21]
*135 FrameData[220]
*136 FrameData[221]
*137 FrameData[222]
*138 FrameData[223]
*139 FrameData[224]
*140 FrameData[225]
*141 FrameData[226]
*142 FrameData[227]
*143 FrameData[228]
*144 FrameData[229]
*145 FrameData[22]
*146 FrameData[230]
*147 FrameData[231]
*148 FrameData[232]
*149 FrameData[233]
*150 FrameData[234]
*151 FrameData[235]
*152 FrameData[236]
*153 FrameData[237]
*154 FrameData[238]
*155 FrameData[239]
*156 FrameData[23]
*157 FrameData[240]
*158 FrameData[241]
*159 FrameData[242]
*160 FrameData[243]
*161 FrameData[244]
*162 FrameData[245]
*163 FrameData[246]
*164 FrameData[247]
*165 FrameData[248]
*166 FrameData[249]
*167 FrameData[24]
*168 FrameData[250]
*169 FrameData[251]
*170 FrameData[252]
*171 FrameData[253]
*172 FrameData[254]
*173 FrameData[255]
*174 FrameData[256]
*175 FrameData[257]
*176 FrameData[258]
*177 FrameData[259]
*178 FrameData[25]
*179 FrameData[260]
*180 FrameData[261]
*181 FrameData[262]
*182 FrameData[263]
*183 FrameData[264]
*184 FrameData[265]
*185 FrameData[266]
*186 FrameData[267]
*187 FrameData[268]
*188 FrameData[269]
*189 FrameData[26]
*190 FrameData[270]
*191 FrameData[271]
*192 FrameData[272]
*193 FrameData[273]
*194 FrameData[274]
*195 FrameData[275]
*196 FrameData[276]
*197 FrameData[277]
*198 FrameData[278]
*199 FrameData[279]
*200 FrameData[27]
*201 FrameData[280]
*202 FrameData[281]
*203 FrameData[282]
*204 FrameData[283]
*205 FrameData[284]
*206 FrameData[285]
*207 FrameData[286]
*208 FrameData[287]
*209 FrameData[288]
*210 FrameData[289]
*211 FrameData[28]
*212 FrameData[290]
*213 FrameData[291]
*214 FrameData[292]
*215 FrameData[293]
*216 FrameData[294]
*217 FrameData[295]
*218 FrameData[296]
*219 FrameData[297]
*220 FrameData[298]
*221 FrameData[299]
*222 FrameData[29]
*223 FrameData[2]
*224 FrameData[300]
*225 FrameData[301]
*226 FrameData[302]
*227 FrameData[303]
*228 FrameData[304]
*229 FrameData[305]
*230 FrameData[306]
*231 FrameData[307]
*232 FrameData[308]
*233 FrameData[309]
*234 FrameData[30]
*235 FrameData[310]
*236 FrameData[311]
*237 FrameData[312]
*238 FrameData[313]
*239 FrameData[314]
*240 FrameData[315]
*241 FrameData[316]
*242 FrameData[317]
*243 FrameData[318]
*244 FrameData[319]
*245 FrameData[31]
*246 FrameData[320]
*247 FrameData[321]
*248 FrameData[322]
*249 FrameData[323]
*250 FrameData[324]
*251 FrameData[325]
*252 FrameData[326]
*253 FrameData[327]
*254 FrameData[328]
*255 FrameData[329]
*256 FrameData[32]
*257 FrameData[330]
*258 FrameData[331]
*259 FrameData[332]
*260 FrameData[333]
*261 FrameData[334]
*262 FrameData[335]
*263 FrameData[336]
*264 FrameData[337]
*265 FrameData[338]
*266 FrameData[339]
*267 FrameData[33]
*268 FrameData[340]
*269 FrameData[341]
*270 FrameData[342]
*271 FrameData[343]
*272 FrameData[344]
*273 FrameData[345]
*274 FrameData[346]
*275 FrameData[347]
*276 FrameData[348]
*277 FrameData[349]
*278 FrameData[34]
*279 FrameData[350]
*280 FrameData[351]
*281 FrameData[352]
*282 FrameData[353]
*283 FrameData[354]
*284 FrameData[355]
*285 FrameData[356]
*286 FrameData[357]
*287 FrameData[358]
*288 FrameData[359]
*289 FrameData[35]
*290 FrameData[360]
*291 FrameData[361]
*292 FrameData[362]
*293 FrameData[363]
*294 FrameData[364]
*295 FrameData[365]
*296 FrameData[366]
*297 FrameData[367]
*298 FrameData[368]
*299 FrameData[369]
*300 FrameData[36]
*301 FrameData[370]
*302 FrameData[371]
*303 FrameData[372]
*304 FrameData[373]
*305 FrameData[374]
*306 FrameData[375]
*307 FrameData[376]
*308 FrameData[377]
*309 FrameData[378]
*310 FrameData[379]
*311 FrameData[37]
*312 FrameData[380]
*313 FrameData[381]
*314 FrameData[382]
*315 FrameData[383]
*316 FrameData[384]
*317 FrameData[385]
*318 FrameData[386]
*319 FrameData[387]
*320 FrameData[388]
*321 FrameData[389]
*322 FrameData[38]
*323 FrameData[390]
*324 FrameData[391]
*325 FrameData[392]
*326 FrameData[393]
*327 FrameData[394]
*328 FrameData[395]
*329 FrameData[396]
*330 FrameData[397]
*331 FrameData[398]
*332 FrameData[399]
*333 FrameData[39]
*334 FrameData[3]
*335 FrameData[400]
*336 FrameData[401]
*337 FrameData[402]
*338 FrameData[403]
*339 FrameData[404]
*340 FrameData[405]
*341 FrameData[406]
*342 FrameData[407]
*343 FrameData[408]
*344 FrameData[409]
*345 FrameData[40]
*346 FrameData[410]
*347 FrameData[411]
*348 FrameData[412]
*349 FrameData[413]
*350 FrameData[414]
*351 FrameData[415]
*352 FrameData[416]
*353 FrameData[417]
*354 FrameData[418]
*355 FrameData[419]
*356 FrameData[41]
*357 FrameData[420]
*358 FrameData[421]
*359 FrameData[422]
*360 FrameData[423]
*361 FrameData[424]
*362 FrameData[425]
*363 FrameData[426]
*364 FrameData[427]
*365 FrameData[428]
*366 FrameData[429]
*367 FrameData[42]
*368 FrameData[430]
*369 FrameData[431]
*370 FrameData[432]
*371 FrameData[433]
*372 FrameData[434]
*373 FrameData[435]
*374 FrameData[436]
*375 FrameData[437]
*376 FrameData[438]
*377 FrameData[439]
*378 FrameData[43]
*379 FrameData[440]
*380 FrameData[441]
*381 FrameData[442]
*382 FrameData[443]
*383 FrameData[444]
*384 FrameData[445]
*385 FrameData[446]
*386 FrameData[447]
*387 FrameData[448]
*388 FrameData[449]
*389 FrameData[44]
*390 FrameData[450]
*391 FrameData[451]
*392 FrameData[452]
*393 FrameData[453]
*394 FrameData[454]
*395 FrameData[455]
*396 FrameData[456]
*397 FrameData[457]
*398 FrameData[458]
*399 FrameData[459]
*400 FrameData[45]
*401 FrameData[460]
*402 FrameData[461]
*403 FrameData[462]
*404 FrameData[463]
*405 FrameData[464]
*406 FrameData[465]
*407 FrameData[466]
*408 FrameData[467]
*409 FrameData[468]
*410 FrameData[469]
*411 FrameData[46]
*412 FrameData[470]
*413 FrameData[471]
*414 FrameData[472]
*415 FrameData[473]
*416 FrameData[474]
*417 FrameData[475]
*418 FrameData[476]
*419 FrameData[477]
*420 FrameData[478]
*421 FrameData[479]
*422 FrameData[47]
*423 FrameData[480]
*424 FrameData[481]
*425 FrameData[482]
*426 FrameData[483]
*427 FrameData[484]
*428 FrameData[485]
*429 FrameData[486]
*430 FrameData[487]
*431 FrameData[488]
*432 FrameData[489]
*433 FrameData[48]
*434 FrameData[490]
*435 FrameData[491]
*436 FrameData[492]
*437 FrameData[493]
*438 FrameData[494]
*439 FrameData[495]
*440 FrameData[496]
*441 FrameData[497]
*442 FrameData[498]
*443 FrameData[499]
*444 FrameData[49]
*445 FrameData[4]
*446 FrameData[500]
*447 FrameData[501]
*448 FrameData[502]
*449 FrameData[503]
*450 FrameData[504]
*451 FrameData[505]
*452 FrameData[506]
*453 FrameData[507]
*454 FrameData[508]
*455 FrameData[509]
*456 FrameData[50]
*457 FrameData[510]
*458 FrameData[511]
*459 FrameData[51]
*460 FrameData[52]
*461 FrameData[53]
*462 FrameData[54]
*463 FrameData[55]
*464 FrameData[56]
*465 FrameData[57]
*466 FrameData[58]
*467 FrameData[59]
*468 FrameData[5]
*469 FrameData[60]
*470 FrameData[61]
*471 FrameData[62]
*472 FrameData[63]
*473 FrameData[64]
*474 FrameData[65]
*475 FrameData[66]
*476 FrameData[67]
*477 FrameData[68]
*478 FrameData[69]
*479 FrameData[6]
*480 FrameData[70]
*481 FrameData[71]
*482 FrameData[72]
*483 FrameData[73]
*484 FrameData[74]
*485 FrameData[75]
*486 FrameData[76]
*487 FrameData[77]
*488 FrameData[78]
*489 FrameData[79]
*490 FrameData[7]
*491 FrameData[80]
*492 FrameData[81]
*493 FrameData[82]
*494 FrameData[83]
*495 FrameData[84]
*496 FrameData[85]
*497 FrameData[86]
*498 FrameData[87]
*499 FrameData[88]
*500 FrameData[89]
*501 FrameData[8]
*502 FrameData[90]
*503 FrameData[91]
*504 FrameData[92]
*505 FrameData[93]
*506 FrameData[94]
*507 FrameData[95]
*508 FrameData[96]
*509 FrameData[97]
*510 FrameData[98]
*511 FrameData[99]
*512 FrameData[9]
*513 FrameStrobe[0]
*514 FrameStrobe[100]
*515 FrameStrobe[101]
*516 FrameStrobe[102]
*517 FrameStrobe[103]
*518 FrameStrobe[104]
*519 FrameStrobe[105]
*520 FrameStrobe[106]
*521 FrameStrobe[107]
*522 FrameStrobe[108]
*523 FrameStrobe[109]
*524 FrameStrobe[10]
*525 FrameStrobe[110]
*526 FrameStrobe[111]
*527 FrameStrobe[112]
*528 FrameStrobe[113]
*529 FrameStrobe[114]
*530 FrameStrobe[115]
*531 FrameStrobe[116]
*532 FrameStrobe[117]
*533 FrameStrobe[118]
*534 FrameStrobe[119]
*535 FrameStrobe[11]
*536 FrameStrobe[120]
*537 FrameStrobe[121]
*538 FrameStrobe[122]
*539 FrameStrobe[123]
*540 FrameStrobe[124]
*541 FrameStrobe[125]
*542 FrameStrobe[126]
*543 FrameStrobe[127]
*544 FrameStrobe[128]
*545 FrameStrobe[129]
*546 FrameStrobe[12]
*547 FrameStrobe[130]
*548 FrameStrobe[131]
*549 FrameStrobe[132]
*550 FrameStrobe[133]
*551 FrameStrobe[134]
*552 FrameStrobe[135]
*553 FrameStrobe[136]
*554 FrameStrobe[137]
*555 FrameStrobe[138]
*556 FrameStrobe[139]
*557 FrameStrobe[13]
*558 FrameStrobe[140]
*559 FrameStrobe[141]
*560 FrameStrobe[142]
*561 FrameStrobe[143]
*562 FrameStrobe[144]
*563 FrameStrobe[145]
*564 FrameStrobe[146]
*565 FrameStrobe[147]
*566 FrameStrobe[148]
*567 FrameStrobe[149]
*568 FrameStrobe[14]
*569 FrameStrobe[150]
*570 FrameStrobe[151]
*571 FrameStrobe[152]
*572 FrameStrobe[153]
*573 FrameStrobe[154]
*574 FrameStrobe[155]
*575 FrameStrobe[156]
*576 FrameStrobe[157]
*577 FrameStrobe[158]
*578 FrameStrobe[159]
*579 FrameStrobe[15]
*580 FrameStrobe[160]
*581 FrameStrobe[161]
*582 FrameStrobe[162]
*583 FrameStrobe[163]
*584 FrameStrobe[164]
*585 FrameStrobe[165]
*586 FrameStrobe[166]
*587 FrameStrobe[167]
*588 FrameStrobe[168]
*589 FrameStrobe[169]
*590 FrameStrobe[16]
*591 FrameStrobe[170]
*592 FrameStrobe[171]
*593 FrameStrobe[172]
*594 FrameStrobe[173]
*595 FrameStrobe[174]
*596 FrameStrobe[175]
*597 FrameStrobe[176]
*598 FrameStrobe[177]
*599 FrameStrobe[178]
*600 FrameStrobe[179]
*601 FrameStrobe[17]
*602 FrameStrobe[180]
*603 FrameStrobe[181]
*604 FrameStrobe[182]
*605 FrameStrobe[183]
*606 FrameStrobe[184]
*607 FrameStrobe[185]
*608 FrameStrobe[186]
*609 FrameStrobe[187]
*610 FrameStrobe[188]
*611 FrameStrobe[189]
*612 FrameStrobe[18]
*613 FrameStrobe[190]
*614 FrameStrobe[191]
*615 FrameStrobe[192]
*616 FrameStrobe[193]
*617 FrameStrobe[194]
*618 FrameStrobe[195]
*619 FrameStrobe[196]
*620 FrameStrobe[197]
*621 FrameStrobe[198]
*622 FrameStrobe[199]
*623 FrameStrobe[19]
*624 FrameStrobe[1]
*625 FrameStrobe[200]
*626 FrameStrobe[201]
*627 FrameStrobe[202]
*628 FrameStrobe[203]
*629 FrameStrobe[204]
*630 FrameStrobe[205]
*631 FrameStrobe[206]
*632 FrameStrobe[207]
*633 FrameStrobe[208]
*634 FrameStrobe[209]
*635 FrameStrobe[20]
*636 FrameStrobe[210]
*637 FrameStrobe[211]
*638 FrameStrobe[212]
*639 FrameStrobe[213]
*640 FrameStrobe[214]
*641 FrameStrobe[215]
*642 FrameStrobe[216]
*643 FrameStrobe[217]
*644 FrameStrobe[218]
*645 FrameStrobe[219]
*646 FrameStrobe[21]
*647 FrameStrobe[22]
*648 FrameStrobe[23]
*649 FrameStrobe[24]
*650 FrameStrobe[25]
*651 FrameStrobe[26]
*652 FrameStrobe[27]
*653 FrameStrobe[28]
*654 FrameStrobe[29]
*655 FrameStrobe[2]
*656 FrameStrobe[30]
*657 FrameStrobe[31]
*658 FrameStrobe[32]
*659 FrameStrobe[33]
*660 FrameStrobe[34]
*661 FrameStrobe[35]
*662 FrameStrobe[36]
*663 FrameStrobe[37]
*664 FrameStrobe[38]
*665 FrameStrobe[39]
*666 FrameStrobe[3]
*667 FrameStrobe[40]
*668 FrameStrobe[41]
*669 FrameStrobe[42]
*670 FrameStrobe[43]
*671 FrameStrobe[44]
*672 FrameStrobe[45]
*673 FrameStrobe[46]
*674 FrameStrobe[47]
*675 FrameStrobe[48]
*676 FrameStrobe[49]
*677 FrameStrobe[4]
*678 FrameStrobe[50]
*679 FrameStrobe[51]
*680 FrameStrobe[52]
*681 FrameStrobe[53]
*682 FrameStrobe[54]
*683 FrameStrobe[55]
*684 FrameStrobe[56]
*685 FrameStrobe[57]
*686 FrameStrobe[58]
*687 FrameStrobe[59]
*688 FrameStrobe[5]
*689 FrameStrobe[60]
*690 FrameStrobe[61]
*691 FrameStrobe[62]
*692 FrameStrobe[63]
*693 FrameStrobe[64]
*694 FrameStrobe[65]
*695 FrameStrobe[66]
*696 FrameStrobe[67]
*697 FrameStrobe[68]
*698 FrameStrobe[69]
*699 FrameStrobe[6]
*700 FrameStrobe[70]
*701 FrameStrobe[71]
*702 FrameStrobe[72]
*703 FrameStrobe[73]
*704 FrameStrobe[74]
*705 FrameStrobe[75]
*706 FrameStrobe[76]
*707 FrameStrobe[77]
*708 FrameStrobe[78]
*709 FrameStrobe[79]
*710 FrameStrobe[7]
*711 FrameStrobe[80]
*712 FrameStrobe[81]
*713 FrameStrobe[82]
*714 FrameStrobe[83]
*715 FrameStrobe[84]
*716 FrameStrobe[85]
*717 FrameStrobe[86]
*718 FrameStrobe[87]
*719 FrameStrobe[88]
*720 FrameStrobe[89]
*721 FrameStrobe[8]
*722 FrameStrobe[90]
*723 FrameStrobe[91]
*724 FrameStrobe[92]
*725 FrameStrobe[93]
*726 FrameStrobe[94]
*727 FrameStrobe[95]
*728 FrameStrobe[96]
*729 FrameStrobe[97]
*730 FrameStrobe[98]
*731 FrameStrobe[99]
*732 FrameStrobe[9]
*733 Tile_X0Y10_A_I_top
*734 Tile_X0Y10_A_O_top
*735 Tile_X0Y10_A_T_top
*736 Tile_X0Y10_A_config_C_bit0
*737 Tile_X0Y10_A_config_C_bit1
*738 Tile_X0Y10_A_config_C_bit2
*739 Tile_X0Y10_A_config_C_bit3
*740 Tile_X0Y10_B_I_top
*741 Tile_X0Y10_B_O_top
*742 Tile_X0Y10_B_T_top
*743 Tile_X0Y10_B_config_C_bit0
*744 Tile_X0Y10_B_config_C_bit1
*745 Tile_X0Y10_B_config_C_bit2
*746 Tile_X0Y10_B_config_C_bit3
*747 Tile_X0Y11_A_I_top
*748 Tile_X0Y11_A_O_top
*749 Tile_X0Y11_A_T_top
*750 Tile_X0Y11_A_config_C_bit0
*751 Tile_X0Y11_A_config_C_bit1
*752 Tile_X0Y11_A_config_C_bit2
*753 Tile_X0Y11_A_config_C_bit3
*754 Tile_X0Y11_B_I_top
*755 Tile_X0Y11_B_O_top
*756 Tile_X0Y11_B_T_top
*757 Tile_X0Y11_B_config_C_bit0
*758 Tile_X0Y11_B_config_C_bit1
*759 Tile_X0Y11_B_config_C_bit2
*760 Tile_X0Y11_B_config_C_bit3
*761 Tile_X0Y12_A_I_top
*762 Tile_X0Y12_A_O_top
*763 Tile_X0Y12_A_T_top
*764 Tile_X0Y12_A_config_C_bit0
*765 Tile_X0Y12_A_config_C_bit1
*766 Tile_X0Y12_A_config_C_bit2
*767 Tile_X0Y12_A_config_C_bit3
*768 Tile_X0Y12_B_I_top
*769 Tile_X0Y12_B_O_top
*770 Tile_X0Y12_B_T_top
*771 Tile_X0Y12_B_config_C_bit0
*772 Tile_X0Y12_B_config_C_bit1
*773 Tile_X0Y12_B_config_C_bit2
*774 Tile_X0Y12_B_config_C_bit3
*775 Tile_X0Y13_A_I_top
*776 Tile_X0Y13_A_O_top
*777 Tile_X0Y13_A_T_top
*778 Tile_X0Y13_A_config_C_bit0
*779 Tile_X0Y13_A_config_C_bit1
*780 Tile_X0Y13_A_config_C_bit2
*781 Tile_X0Y13_A_config_C_bit3
*782 Tile_X0Y13_B_I_top
*783 Tile_X0Y13_B_O_top
*784 Tile_X0Y13_B_T_top
*785 Tile_X0Y13_B_config_C_bit0
*786 Tile_X0Y13_B_config_C_bit1
*787 Tile_X0Y13_B_config_C_bit2
*788 Tile_X0Y13_B_config_C_bit3
*789 Tile_X0Y14_A_I_top
*790 Tile_X0Y14_A_O_top
*791 Tile_X0Y14_A_T_top
*792 Tile_X0Y14_A_config_C_bit0
*793 Tile_X0Y14_A_config_C_bit1
*794 Tile_X0Y14_A_config_C_bit2
*795 Tile_X0Y14_A_config_C_bit3
*796 Tile_X0Y14_B_I_top
*797 Tile_X0Y14_B_O_top
*798 Tile_X0Y14_B_T_top
*799 Tile_X0Y14_B_config_C_bit0
*800 Tile_X0Y14_B_config_C_bit1
*801 Tile_X0Y14_B_config_C_bit2
*802 Tile_X0Y14_B_config_C_bit3
*803 Tile_X0Y1_A_I_top
*804 Tile_X0Y1_A_O_top
*805 Tile_X0Y1_A_T_top
*806 Tile_X0Y1_A_config_C_bit0
*807 Tile_X0Y1_A_config_C_bit1
*808 Tile_X0Y1_A_config_C_bit2
*809 Tile_X0Y1_A_config_C_bit3
*810 Tile_X0Y1_B_I_top
*811 Tile_X0Y1_B_O_top
*812 Tile_X0Y1_B_T_top
*813 Tile_X0Y1_B_config_C_bit0
*814 Tile_X0Y1_B_config_C_bit1
*815 Tile_X0Y1_B_config_C_bit2
*816 Tile_X0Y1_B_config_C_bit3
*817 Tile_X0Y2_A_I_top
*818 Tile_X0Y2_A_O_top
*819 Tile_X0Y2_A_T_top
*820 Tile_X0Y2_A_config_C_bit0
*821 Tile_X0Y2_A_config_C_bit1
*822 Tile_X0Y2_A_config_C_bit2
*823 Tile_X0Y2_A_config_C_bit3
*824 Tile_X0Y2_B_I_top
*825 Tile_X0Y2_B_O_top
*826 Tile_X0Y2_B_T_top
*827 Tile_X0Y2_B_config_C_bit0
*828 Tile_X0Y2_B_config_C_bit1
*829 Tile_X0Y2_B_config_C_bit2
*830 Tile_X0Y2_B_config_C_bit3
*831 Tile_X0Y3_A_I_top
*832 Tile_X0Y3_A_O_top
*833 Tile_X0Y3_A_T_top
*834 Tile_X0Y3_A_config_C_bit0
*835 Tile_X0Y3_A_config_C_bit1
*836 Tile_X0Y3_A_config_C_bit2
*837 Tile_X0Y3_A_config_C_bit3
*838 Tile_X0Y3_B_I_top
*839 Tile_X0Y3_B_O_top
*840 Tile_X0Y3_B_T_top
*841 Tile_X0Y3_B_config_C_bit0
*842 Tile_X0Y3_B_config_C_bit1
*843 Tile_X0Y3_B_config_C_bit2
*844 Tile_X0Y3_B_config_C_bit3
*845 Tile_X0Y4_A_I_top
*846 Tile_X0Y4_A_O_top
*847 Tile_X0Y4_A_T_top
*848 Tile_X0Y4_A_config_C_bit0
*849 Tile_X0Y4_A_config_C_bit1
*850 Tile_X0Y4_A_config_C_bit2
*851 Tile_X0Y4_A_config_C_bit3
*852 Tile_X0Y4_B_I_top
*853 Tile_X0Y4_B_O_top
*854 Tile_X0Y4_B_T_top
*855 Tile_X0Y4_B_config_C_bit0
*856 Tile_X0Y4_B_config_C_bit1
*857 Tile_X0Y4_B_config_C_bit2
*858 Tile_X0Y4_B_config_C_bit3
*859 Tile_X0Y5_A_I_top
*860 Tile_X0Y5_A_O_top
*861 Tile_X0Y5_A_T_top
*862 Tile_X0Y5_A_config_C_bit0
*863 Tile_X0Y5_A_config_C_bit1
*864 Tile_X0Y5_A_config_C_bit2
*865 Tile_X0Y5_A_config_C_bit3
*866 Tile_X0Y5_B_I_top
*867 Tile_X0Y5_B_O_top
*868 Tile_X0Y5_B_T_top
*869 Tile_X0Y5_B_config_C_bit0
*870 Tile_X0Y5_B_config_C_bit1
*871 Tile_X0Y5_B_config_C_bit2
*872 Tile_X0Y5_B_config_C_bit3
*873 Tile_X0Y6_A_I_top
*874 Tile_X0Y6_A_O_top
*875 Tile_X0Y6_A_T_top
*876 Tile_X0Y6_A_config_C_bit0
*877 Tile_X0Y6_A_config_C_bit1
*878 Tile_X0Y6_A_config_C_bit2
*879 Tile_X0Y6_A_config_C_bit3
*880 Tile_X0Y6_B_I_top
*881 Tile_X0Y6_B_O_top
*882 Tile_X0Y6_B_T_top
*883 Tile_X0Y6_B_config_C_bit0
*884 Tile_X0Y6_B_config_C_bit1
*885 Tile_X0Y6_B_config_C_bit2
*886 Tile_X0Y6_B_config_C_bit3
*887 Tile_X0Y7_A_I_top
*888 Tile_X0Y7_A_O_top
*889 Tile_X0Y7_A_T_top
*890 Tile_X0Y7_A_config_C_bit0
*891 Tile_X0Y7_A_config_C_bit1
*892 Tile_X0Y7_A_config_C_bit2
*893 Tile_X0Y7_A_config_C_bit3
*894 Tile_X0Y7_B_I_top
*895 Tile_X0Y7_B_O_top
*896 Tile_X0Y7_B_T_top
*897 Tile_X0Y7_B_config_C_bit0
*898 Tile_X0Y7_B_config_C_bit1
*899 Tile_X0Y7_B_config_C_bit2
*900 Tile_X0Y7_B_config_C_bit3
*901 Tile_X0Y8_A_I_top
*902 Tile_X0Y8_A_O_top
*903 Tile_X0Y8_A_T_top
*904 Tile_X0Y8_A_config_C_bit0
*905 Tile_X0Y8_A_config_C_bit1
*906 Tile_X0Y8_A_config_C_bit2
*907 Tile_X0Y8_A_config_C_bit3
*908 Tile_X0Y8_B_I_top
*909 Tile_X0Y8_B_O_top
*910 Tile_X0Y8_B_T_top
*911 Tile_X0Y8_B_config_C_bit0
*912 Tile_X0Y8_B_config_C_bit1
*913 Tile_X0Y8_B_config_C_bit2
*914 Tile_X0Y8_B_config_C_bit3
*915 Tile_X0Y9_A_I_top
*916 Tile_X0Y9_A_O_top
*917 Tile_X0Y9_A_T_top
*918 Tile_X0Y9_A_config_C_bit0
*919 Tile_X0Y9_A_config_C_bit1
*920 Tile_X0Y9_A_config_C_bit2
*921 Tile_X0Y9_A_config_C_bit3
*922 Tile_X0Y9_B_I_top
*923 Tile_X0Y9_B_O_top
*924 Tile_X0Y9_B_T_top
*925 Tile_X0Y9_B_config_C_bit0
*926 Tile_X0Y9_B_config_C_bit1
*927 Tile_X0Y9_B_config_C_bit2
*928 Tile_X0Y9_B_config_C_bit3
*929 Tile_X10Y10_ADDR_SRAM0
*930 Tile_X10Y10_ADDR_SRAM1
*931 Tile_X10Y10_ADDR_SRAM2
*932 Tile_X10Y10_ADDR_SRAM3
*933 Tile_X10Y10_ADDR_SRAM4
*934 Tile_X10Y10_ADDR_SRAM5
*935 Tile_X10Y10_ADDR_SRAM6
*936 Tile_X10Y10_ADDR_SRAM7
*937 Tile_X10Y10_ADDR_SRAM8
*938 Tile_X10Y10_ADDR_SRAM9
*939 Tile_X10Y10_BM_SRAM0
*940 Tile_X10Y10_BM_SRAM1
*941 Tile_X10Y10_BM_SRAM10
*942 Tile_X10Y10_BM_SRAM11
*943 Tile_X10Y10_BM_SRAM12
*944 Tile_X10Y10_BM_SRAM13
*945 Tile_X10Y10_BM_SRAM14
*946 Tile_X10Y10_BM_SRAM15
*947 Tile_X10Y10_BM_SRAM16
*948 Tile_X10Y10_BM_SRAM17
*949 Tile_X10Y10_BM_SRAM18
*950 Tile_X10Y10_BM_SRAM19
*951 Tile_X10Y10_BM_SRAM2
*952 Tile_X10Y10_BM_SRAM20
*953 Tile_X10Y10_BM_SRAM21
*954 Tile_X10Y10_BM_SRAM22
*955 Tile_X10Y10_BM_SRAM23
*956 Tile_X10Y10_BM_SRAM24
*957 Tile_X10Y10_BM_SRAM25
*958 Tile_X10Y10_BM_SRAM26
*959 Tile_X10Y10_BM_SRAM27
*960 Tile_X10Y10_BM_SRAM28
*961 Tile_X10Y10_BM_SRAM29
*962 Tile_X10Y10_BM_SRAM3
*963 Tile_X10Y10_BM_SRAM30
*964 Tile_X10Y10_BM_SRAM31
*965 Tile_X10Y10_BM_SRAM4
*966 Tile_X10Y10_BM_SRAM5
*967 Tile_X10Y10_BM_SRAM6
*968 Tile_X10Y10_BM_SRAM7
*969 Tile_X10Y10_BM_SRAM8
*970 Tile_X10Y10_BM_SRAM9
*971 Tile_X10Y10_CLK_SRAM
*972 Tile_X10Y10_CONFIGURED_top
*973 Tile_X10Y10_DIN_SRAM0
*974 Tile_X10Y10_DIN_SRAM1
*975 Tile_X10Y10_DIN_SRAM10
*976 Tile_X10Y10_DIN_SRAM11
*977 Tile_X10Y10_DIN_SRAM12
*978 Tile_X10Y10_DIN_SRAM13
*979 Tile_X10Y10_DIN_SRAM14
*980 Tile_X10Y10_DIN_SRAM15
*981 Tile_X10Y10_DIN_SRAM16
*982 Tile_X10Y10_DIN_SRAM17
*983 Tile_X10Y10_DIN_SRAM18
*984 Tile_X10Y10_DIN_SRAM19
*985 Tile_X10Y10_DIN_SRAM2
*986 Tile_X10Y10_DIN_SRAM20
*987 Tile_X10Y10_DIN_SRAM21
*988 Tile_X10Y10_DIN_SRAM22
*989 Tile_X10Y10_DIN_SRAM23
*990 Tile_X10Y10_DIN_SRAM24
*991 Tile_X10Y10_DIN_SRAM25
*992 Tile_X10Y10_DIN_SRAM26
*993 Tile_X10Y10_DIN_SRAM27
*994 Tile_X10Y10_DIN_SRAM28
*995 Tile_X10Y10_DIN_SRAM29
*996 Tile_X10Y10_DIN_SRAM3
*997 Tile_X10Y10_DIN_SRAM30
*998 Tile_X10Y10_DIN_SRAM31
*999 Tile_X10Y10_DIN_SRAM4
*1000 Tile_X10Y10_DIN_SRAM5
*1001 Tile_X10Y10_DIN_SRAM6
*1002 Tile_X10Y10_DIN_SRAM7
*1003 Tile_X10Y10_DIN_SRAM8
*1004 Tile_X10Y10_DIN_SRAM9
*1005 Tile_X10Y10_DOUT_SRAM0
*1006 Tile_X10Y10_DOUT_SRAM1
*1007 Tile_X10Y10_DOUT_SRAM10
*1008 Tile_X10Y10_DOUT_SRAM11
*1009 Tile_X10Y10_DOUT_SRAM12
*1010 Tile_X10Y10_DOUT_SRAM13
*1011 Tile_X10Y10_DOUT_SRAM14
*1012 Tile_X10Y10_DOUT_SRAM15
*1013 Tile_X10Y10_DOUT_SRAM16
*1014 Tile_X10Y10_DOUT_SRAM17
*1015 Tile_X10Y10_DOUT_SRAM18
*1016 Tile_X10Y10_DOUT_SRAM19
*1017 Tile_X10Y10_DOUT_SRAM2
*1018 Tile_X10Y10_DOUT_SRAM20
*1019 Tile_X10Y10_DOUT_SRAM21
*1020 Tile_X10Y10_DOUT_SRAM22
*1021 Tile_X10Y10_DOUT_SRAM23
*1022 Tile_X10Y10_DOUT_SRAM24
*1023 Tile_X10Y10_DOUT_SRAM25
*1024 Tile_X10Y10_DOUT_SRAM26
*1025 Tile_X10Y10_DOUT_SRAM27
*1026 Tile_X10Y10_DOUT_SRAM28
*1027 Tile_X10Y10_DOUT_SRAM29
*1028 Tile_X10Y10_DOUT_SRAM3
*1029 Tile_X10Y10_DOUT_SRAM30
*1030 Tile_X10Y10_DOUT_SRAM31
*1031 Tile_X10Y10_DOUT_SRAM4
*1032 Tile_X10Y10_DOUT_SRAM5
*1033 Tile_X10Y10_DOUT_SRAM6
*1034 Tile_X10Y10_DOUT_SRAM7
*1035 Tile_X10Y10_DOUT_SRAM8
*1036 Tile_X10Y10_DOUT_SRAM9
*1037 Tile_X10Y10_MEN_SRAM
*1038 Tile_X10Y10_REN_SRAM
*1039 Tile_X10Y10_TIE_HIGH_SRAM
*1040 Tile_X10Y10_TIE_LOW_SRAM
*1041 Tile_X10Y10_WEN_SRAM
*1042 Tile_X10Y12_ADDR_SRAM0
*1043 Tile_X10Y12_ADDR_SRAM1
*1044 Tile_X10Y12_ADDR_SRAM2
*1045 Tile_X10Y12_ADDR_SRAM3
*1046 Tile_X10Y12_ADDR_SRAM4
*1047 Tile_X10Y12_ADDR_SRAM5
*1048 Tile_X10Y12_ADDR_SRAM6
*1049 Tile_X10Y12_ADDR_SRAM7
*1050 Tile_X10Y12_ADDR_SRAM8
*1051 Tile_X10Y12_ADDR_SRAM9
*1052 Tile_X10Y12_BM_SRAM0
*1053 Tile_X10Y12_BM_SRAM1
*1054 Tile_X10Y12_BM_SRAM10
*1055 Tile_X10Y12_BM_SRAM11
*1056 Tile_X10Y12_BM_SRAM12
*1057 Tile_X10Y12_BM_SRAM13
*1058 Tile_X10Y12_BM_SRAM14
*1059 Tile_X10Y12_BM_SRAM15
*1060 Tile_X10Y12_BM_SRAM16
*1061 Tile_X10Y12_BM_SRAM17
*1062 Tile_X10Y12_BM_SRAM18
*1063 Tile_X10Y12_BM_SRAM19
*1064 Tile_X10Y12_BM_SRAM2
*1065 Tile_X10Y12_BM_SRAM20
*1066 Tile_X10Y12_BM_SRAM21
*1067 Tile_X10Y12_BM_SRAM22
*1068 Tile_X10Y12_BM_SRAM23
*1069 Tile_X10Y12_BM_SRAM24
*1070 Tile_X10Y12_BM_SRAM25
*1071 Tile_X10Y12_BM_SRAM26
*1072 Tile_X10Y12_BM_SRAM27
*1073 Tile_X10Y12_BM_SRAM28
*1074 Tile_X10Y12_BM_SRAM29
*1075 Tile_X10Y12_BM_SRAM3
*1076 Tile_X10Y12_BM_SRAM30
*1077 Tile_X10Y12_BM_SRAM31
*1078 Tile_X10Y12_BM_SRAM4
*1079 Tile_X10Y12_BM_SRAM5
*1080 Tile_X10Y12_BM_SRAM6
*1081 Tile_X10Y12_BM_SRAM7
*1082 Tile_X10Y12_BM_SRAM8
*1083 Tile_X10Y12_BM_SRAM9
*1084 Tile_X10Y12_CLK_SRAM
*1085 Tile_X10Y12_CONFIGURED_top
*1086 Tile_X10Y12_DIN_SRAM0
*1087 Tile_X10Y12_DIN_SRAM1
*1088 Tile_X10Y12_DIN_SRAM10
*1089 Tile_X10Y12_DIN_SRAM11
*1090 Tile_X10Y12_DIN_SRAM12
*1091 Tile_X10Y12_DIN_SRAM13
*1092 Tile_X10Y12_DIN_SRAM14
*1093 Tile_X10Y12_DIN_SRAM15
*1094 Tile_X10Y12_DIN_SRAM16
*1095 Tile_X10Y12_DIN_SRAM17
*1096 Tile_X10Y12_DIN_SRAM18
*1097 Tile_X10Y12_DIN_SRAM19
*1098 Tile_X10Y12_DIN_SRAM2
*1099 Tile_X10Y12_DIN_SRAM20
*1100 Tile_X10Y12_DIN_SRAM21
*1101 Tile_X10Y12_DIN_SRAM22
*1102 Tile_X10Y12_DIN_SRAM23
*1103 Tile_X10Y12_DIN_SRAM24
*1104 Tile_X10Y12_DIN_SRAM25
*1105 Tile_X10Y12_DIN_SRAM26
*1106 Tile_X10Y12_DIN_SRAM27
*1107 Tile_X10Y12_DIN_SRAM28
*1108 Tile_X10Y12_DIN_SRAM29
*1109 Tile_X10Y12_DIN_SRAM3
*1110 Tile_X10Y12_DIN_SRAM30
*1111 Tile_X10Y12_DIN_SRAM31
*1112 Tile_X10Y12_DIN_SRAM4
*1113 Tile_X10Y12_DIN_SRAM5
*1114 Tile_X10Y12_DIN_SRAM6
*1115 Tile_X10Y12_DIN_SRAM7
*1116 Tile_X10Y12_DIN_SRAM8
*1117 Tile_X10Y12_DIN_SRAM9
*1118 Tile_X10Y12_DOUT_SRAM0
*1119 Tile_X10Y12_DOUT_SRAM1
*1120 Tile_X10Y12_DOUT_SRAM10
*1121 Tile_X10Y12_DOUT_SRAM11
*1122 Tile_X10Y12_DOUT_SRAM12
*1123 Tile_X10Y12_DOUT_SRAM13
*1124 Tile_X10Y12_DOUT_SRAM14
*1125 Tile_X10Y12_DOUT_SRAM15
*1126 Tile_X10Y12_DOUT_SRAM16
*1127 Tile_X10Y12_DOUT_SRAM17
*1128 Tile_X10Y12_DOUT_SRAM18
*1129 Tile_X10Y12_DOUT_SRAM19
*1130 Tile_X10Y12_DOUT_SRAM2
*1131 Tile_X10Y12_DOUT_SRAM20
*1132 Tile_X10Y12_DOUT_SRAM21
*1133 Tile_X10Y12_DOUT_SRAM22
*1134 Tile_X10Y12_DOUT_SRAM23
*1135 Tile_X10Y12_DOUT_SRAM24
*1136 Tile_X10Y12_DOUT_SRAM25
*1137 Tile_X10Y12_DOUT_SRAM26
*1138 Tile_X10Y12_DOUT_SRAM27
*1139 Tile_X10Y12_DOUT_SRAM28
*1140 Tile_X10Y12_DOUT_SRAM29
*1141 Tile_X10Y12_DOUT_SRAM3
*1142 Tile_X10Y12_DOUT_SRAM30
*1143 Tile_X10Y12_DOUT_SRAM31
*1144 Tile_X10Y12_DOUT_SRAM4
*1145 Tile_X10Y12_DOUT_SRAM5
*1146 Tile_X10Y12_DOUT_SRAM6
*1147 Tile_X10Y12_DOUT_SRAM7
*1148 Tile_X10Y12_DOUT_SRAM8
*1149 Tile_X10Y12_DOUT_SRAM9
*1150 Tile_X10Y12_MEN_SRAM
*1151 Tile_X10Y12_REN_SRAM
*1152 Tile_X10Y12_TIE_HIGH_SRAM
*1153 Tile_X10Y12_TIE_LOW_SRAM
*1154 Tile_X10Y12_WEN_SRAM
*1155 Tile_X10Y14_ADDR_SRAM0
*1156 Tile_X10Y14_ADDR_SRAM1
*1157 Tile_X10Y14_ADDR_SRAM2
*1158 Tile_X10Y14_ADDR_SRAM3
*1159 Tile_X10Y14_ADDR_SRAM4
*1160 Tile_X10Y14_ADDR_SRAM5
*1161 Tile_X10Y14_ADDR_SRAM6
*1162 Tile_X10Y14_ADDR_SRAM7
*1163 Tile_X10Y14_ADDR_SRAM8
*1164 Tile_X10Y14_ADDR_SRAM9
*1165 Tile_X10Y14_BM_SRAM0
*1166 Tile_X10Y14_BM_SRAM1
*1167 Tile_X10Y14_BM_SRAM10
*1168 Tile_X10Y14_BM_SRAM11
*1169 Tile_X10Y14_BM_SRAM12
*1170 Tile_X10Y14_BM_SRAM13
*1171 Tile_X10Y14_BM_SRAM14
*1172 Tile_X10Y14_BM_SRAM15
*1173 Tile_X10Y14_BM_SRAM16
*1174 Tile_X10Y14_BM_SRAM17
*1175 Tile_X10Y14_BM_SRAM18
*1176 Tile_X10Y14_BM_SRAM19
*1177 Tile_X10Y14_BM_SRAM2
*1178 Tile_X10Y14_BM_SRAM20
*1179 Tile_X10Y14_BM_SRAM21
*1180 Tile_X10Y14_BM_SRAM22
*1181 Tile_X10Y14_BM_SRAM23
*1182 Tile_X10Y14_BM_SRAM24
*1183 Tile_X10Y14_BM_SRAM25
*1184 Tile_X10Y14_BM_SRAM26
*1185 Tile_X10Y14_BM_SRAM27
*1186 Tile_X10Y14_BM_SRAM28
*1187 Tile_X10Y14_BM_SRAM29
*1188 Tile_X10Y14_BM_SRAM3
*1189 Tile_X10Y14_BM_SRAM30
*1190 Tile_X10Y14_BM_SRAM31
*1191 Tile_X10Y14_BM_SRAM4
*1192 Tile_X10Y14_BM_SRAM5
*1193 Tile_X10Y14_BM_SRAM6
*1194 Tile_X10Y14_BM_SRAM7
*1195 Tile_X10Y14_BM_SRAM8
*1196 Tile_X10Y14_BM_SRAM9
*1197 Tile_X10Y14_CLK_SRAM
*1198 Tile_X10Y14_CONFIGURED_top
*1199 Tile_X10Y14_DIN_SRAM0
*1200 Tile_X10Y14_DIN_SRAM1
*1201 Tile_X10Y14_DIN_SRAM10
*1202 Tile_X10Y14_DIN_SRAM11
*1203 Tile_X10Y14_DIN_SRAM12
*1204 Tile_X10Y14_DIN_SRAM13
*1205 Tile_X10Y14_DIN_SRAM14
*1206 Tile_X10Y14_DIN_SRAM15
*1207 Tile_X10Y14_DIN_SRAM16
*1208 Tile_X10Y14_DIN_SRAM17
*1209 Tile_X10Y14_DIN_SRAM18
*1210 Tile_X10Y14_DIN_SRAM19
*1211 Tile_X10Y14_DIN_SRAM2
*1212 Tile_X10Y14_DIN_SRAM20
*1213 Tile_X10Y14_DIN_SRAM21
*1214 Tile_X10Y14_DIN_SRAM22
*1215 Tile_X10Y14_DIN_SRAM23
*1216 Tile_X10Y14_DIN_SRAM24
*1217 Tile_X10Y14_DIN_SRAM25
*1218 Tile_X10Y14_DIN_SRAM26
*1219 Tile_X10Y14_DIN_SRAM27
*1220 Tile_X10Y14_DIN_SRAM28
*1221 Tile_X10Y14_DIN_SRAM29
*1222 Tile_X10Y14_DIN_SRAM3
*1223 Tile_X10Y14_DIN_SRAM30
*1224 Tile_X10Y14_DIN_SRAM31
*1225 Tile_X10Y14_DIN_SRAM4
*1226 Tile_X10Y14_DIN_SRAM5
*1227 Tile_X10Y14_DIN_SRAM6
*1228 Tile_X10Y14_DIN_SRAM7
*1229 Tile_X10Y14_DIN_SRAM8
*1230 Tile_X10Y14_DIN_SRAM9
*1231 Tile_X10Y14_DOUT_SRAM0
*1232 Tile_X10Y14_DOUT_SRAM1
*1233 Tile_X10Y14_DOUT_SRAM10
*1234 Tile_X10Y14_DOUT_SRAM11
*1235 Tile_X10Y14_DOUT_SRAM12
*1236 Tile_X10Y14_DOUT_SRAM13
*1237 Tile_X10Y14_DOUT_SRAM14
*1238 Tile_X10Y14_DOUT_SRAM15
*1239 Tile_X10Y14_DOUT_SRAM16
*1240 Tile_X10Y14_DOUT_SRAM17
*1241 Tile_X10Y14_DOUT_SRAM18
*1242 Tile_X10Y14_DOUT_SRAM19
*1243 Tile_X10Y14_DOUT_SRAM2
*1244 Tile_X10Y14_DOUT_SRAM20
*1245 Tile_X10Y14_DOUT_SRAM21
*1246 Tile_X10Y14_DOUT_SRAM22
*1247 Tile_X10Y14_DOUT_SRAM23
*1248 Tile_X10Y14_DOUT_SRAM24
*1249 Tile_X10Y14_DOUT_SRAM25
*1250 Tile_X10Y14_DOUT_SRAM26
*1251 Tile_X10Y14_DOUT_SRAM27
*1252 Tile_X10Y14_DOUT_SRAM28
*1253 Tile_X10Y14_DOUT_SRAM29
*1254 Tile_X10Y14_DOUT_SRAM3
*1255 Tile_X10Y14_DOUT_SRAM30
*1256 Tile_X10Y14_DOUT_SRAM31
*1257 Tile_X10Y14_DOUT_SRAM4
*1258 Tile_X10Y14_DOUT_SRAM5